Version 4
SHEET 1 880 680
WIRE 224 48 -64 48
WIRE -64 96 -64 48
WIRE 224 160 224 112
WIRE -64 240 -64 176
WIRE 224 240 -64 240
WIRE -64 272 -64 240
FLAG -64 272 0
SYMBOL diode 208 48 R0
SYMATTR InstName D1
SYMBOL res 208 144 R0
SYMATTR InstName R1
SYMATTR Value 3.3k
SYMBOL voltage -64 80 R0
WINDOW 123 0 0 Left 0
WINDOW 39 0 0 Left 0
SYMATTR InstName V1
SYMATTR Value SINE(0 5V 1Hz)
TEXT -98 296 Left 2 !.tran 0 5sec 2sec 0.5sec
