Version 4
SHEET 1 880 680
WIRE 272 -112 -112 -112
WIRE -112 16 -112 -112
WIRE 272 112 272 -48
WIRE -112 192 -112 96
WIRE 96 192 -112 192
WIRE 272 192 96 192
WIRE 96 256 96 192
FLAG 96 256 0
SYMBOL res 256 96 R0
SYMATTR InstName R1
SYMATTR Value 3.3k
SYMBOL voltage -112 0 R0
WINDOW 123 0 0 Left 0
WINDOW 39 0 0 Left 0
SYMATTR InstName V1
SYMATTR Value 5V
SYMBOL diode 256 -112 R0
SYMATTR InstName D1
TEXT 0 376 Left 2 !.tran 0 1sec 0 0.5sec
